Circuit: * C:\Users\user\Documents\KICAD DESIGNS\PROJECTS\clock module\ltspice simulation test\lights toggle.asc

Direct Newton iteration for .op point succeeded.

Date: Wed Dec 15 09:44:36 2021
Total elapsed time: 0.091 seconds.

tnom = 27
temp = 27
method = modified trap
totiter = 4925
traniter = 4919
tranpoints = 2290
accept = 2081
rejected = 209
matrix size = 15
fillins = 7
solver = Normal
Matrix Compiler1: 1.23 KB object code size  0.3/0.1/[0.1]
Matrix Compiler2: 1.33 KB object code size  0.1/0.1/[0.1]

